/*--------------------------------*- C++ -*----------------------------------*\
| =========                 |                                                 |
| \\      /  F ield         | OpenFOAM: The Open Source CFD Toolbox           |
|  \\    /   O peration     | Version:  3.0.0                                 |
|   \\  /    A nd           | Web:      www.OpenFOAM.org                      |
|    \\/     M anipulation  |                                                 |
\*---------------------------------------------------------------------------*/
FoamFile
{
    version     2.0;
    format      ascii;
    class       dictionary;
    object      fvSolution;
}
// * * * * * * * * * * * * * * * * * * * * * * * * * * * * * * * * * * * * * //

solvers
{
    p
    {
        solver          GAMG;
        smoother        GaussSeidel;
        cacheAgglomeration on;
        agglomerator    faceAreaPair;
        nCellsInCoarsestLevel 10;
        mergeLevels     1;
        tolerance       1e-6; //6
        relTol          1e-6; //0.1
    }

    pFinal
    {
        $p;
        tolerance       1e-06;
        relTol          0;
    }

    "(U|k|omega|epsilon)"
    {
        solver          smoothSolver;
        smoother        symGaussSeidel;
        tolerance       1e-6; //6
        relTol          1e-6; //0.1
    }

T
    {
        solver          smoothSolver;
        smoother        symGaussSeidel;
        tolerance       1e-6;
        relTol          0;
    }


// SIMPLE
// {
//     nNonOrthogonalCorrectors 0;
//     consistent      yes;
//
//     residualControl
//     {
//         U                   1e-4; //4
//         p                   1e-3; //3
//         "(k|epsilon|omega)" 1e-3; //3
//     }
// }
//
// relaxationFactors
// {
//     equations
//     {
//         U                   0.7; //0.95
//         "(k|omega|epsilon)" 0.7; //0.95
//     }
// }
}

PISO
{
    nCorrectors     2;
    nNonOrthogonalCorrectors 0;
    pRefCell        0;
    pRefValue       0;
}




relaxationFactors
{
    fields
    {
    }
    equations
    {
    }
}

// ************************************************************************* //
