/*--------------------------------*- C++ -*----------------------------------*\
| =========                 |                                                 |
| \\      /  F ield         | OpenFOAM: The Open Source CFD Toolbox           |
|  \\    /   O peration     | Version:  3.0.0                                 |
|   \\  /    A nd           | Web:      www.OpenFOAM.org                      |
|    \\/     M anipulation  |                                                 |
\*---------------------------------------------------------------------------*/
FoamFile
{
    version     2.0;
    format      ascii;
    class       volVectorField;
    object      U;
}
// * * * * * * * * * * * * * * * * * * * * * * * * * * * * * * * * * * * * * //

#include        "include/initialConditions"

dimensions      [0 1 -1 0 0 0 0];

internalField   uniform $zeroVector;

boundaryField
{
    inlet
    {
        type            fixedValue;
        value           uniform $flowVelocityX;
    }

    outlet
    {
<<<<<<< HEAD
	type		pressureInletOutletVelocity;
	value		uniform $flowVelocityZ;

        //type 		inletOutlet;
	//inletValue 	uniform $zeroVector;
        //value           uniform $flowVelocityZ;
=======
        type            zeroGradient;
<<<<<<< HEAD
>>>>>>> origin/includeFolder
=======
>>>>>>> includeFolder
>>>>>>> 18c325701ff76c2f712dfbba0f58b611384bf2db
    }

    water_body
    {
        type            fixedValue;
<<<<<<< HEAD
        value           uniform $zeroVector;
=======
        value           $internalField;
<<<<<<< HEAD
>>>>>>> origin/includeFolder
=======
>>>>>>> includeFolder
>>>>>>> 18c325701ff76c2f712dfbba0f58b611384bf2db
    }

    #includeEtc "caseDicts/setConstraintTypes"
}

// ************************************************************************* //
